Version 4
SHEET 1 880 680
WIRE 144 96 64 96
WIRE 272 112 208 112
WIRE 288 112 272 112
WIRE 416 112 368 112
WIRE 144 128 112 128
WIRE -112 144 -192 144
WIRE 416 144 416 112
WIRE -112 160 -112 144
WIRE 112 240 112 128
WIRE 144 240 112 240
WIRE 272 240 272 112
WIRE 272 240 224 240
FLAG 176 80 -5V
FLAG 176 144 +5V
FLAG 112 320 0
FLAG 64 96 In
FLAG 416 208 0
FLAG 416 112 Out
FLAG -192 224 -5V
FLAG -192 64 +5V
FLAG -112 160 0
FLAG -128 368 0
FLAG -128 288 In
SYMBOL OpAmps\\UniversalOpAmp 176 112 M180
SYMATTR InstName U1
SYMBOL res 240 224 R90
WINDOW 0 0 56 VBottom 2
WINDOW 3 32 56 VTop 2
SYMATTR InstName R1
SYMATTR Value 14.7k
SYMBOL res 128 336 R180
WINDOW 0 36 76 Left 2
WINDOW 3 36 40 Left 2
SYMATTR InstName R2
SYMATTR Value 10k
SYMBOL res 384 96 R90
WINDOW 0 0 56 VBottom 2
WINDOW 3 32 56 VTop 2
SYMATTR InstName R3
SYMATTR Value 1.47k
SYMBOL cap 400 144 R0
SYMATTR InstName C1
SYMATTR Value 5.5n
SYMBOL voltage -192 48 R0
WINDOW 123 0 0 Left 0
WINDOW 39 0 0 Left 0
SYMATTR InstName V1
SYMATTR Value 5
SYMBOL voltage -192 128 R0
WINDOW 123 0 0 Left 0
WINDOW 39 0 0 Left 0
SYMATTR InstName V2
SYMATTR Value 5
SYMBOL voltage -128 272 R0
WINDOW 123 24 124 Left 2
WINDOW 39 0 0 Left 0
SYMATTR InstName V3
SYMATTR Value ""
SYMATTR Value2 AC 1
TEXT -224 416 Left 2 !.ac dec 100 10 100k
