Version 4
SHEET 1 880 680
WIRE 256 64 80 64
WIRE 80 144 80 64
WIRE 128 144 80 144
WIRE 256 160 256 64
WIRE 256 160 192 160
WIRE 384 160 336 160
WIRE 464 160 384 160
WIRE -144 176 -224 176
WIRE 128 176 0 176
WIRE -144 192 -144 176
FLAG -224 96 +5V
FLAG -224 256 -5V
FLAG 160 192 -5V
FLAG 160 128 +5V
FLAG 384 240 0
FLAG 464 224 0
FLAG -144 192 0
FLAG 0 176 In
FLAG 464 160 Out
SYMBOL OpAmps\\UniversalOpAmp 160 160 R0
SYMATTR InstName U1
SYMBOL voltage -224 80 R0
WINDOW 123 0 0 Left 0
WINDOW 39 0 0 Left 0
SYMATTR InstName V1
SYMATTR Value 5
SYMBOL voltage -224 160 R0
WINDOW 123 0 0 Left 0
WINDOW 39 0 0 Left 0
SYMATTR InstName V2
SYMATTR Value 5
SYMBOL res 352 144 R90
WINDOW 0 0 56 VBottom 2
WINDOW 3 32 56 VTop 2
SYMATTR InstName R1
SYMATTR Value 1.47k
SYMBOL res 400 256 R180
WINDOW 0 34 63 Left 2
WINDOW 3 36 40 Left 2
SYMATTR InstName R2
SYMATTR Value 1k
SYMBOL cap 448 160 R0
WINDOW 0 37 32 Left 2
SYMATTR InstName C1
SYMATTR Value 5.5n
